** MITK-GEM material-mapped volume mesh
** Material mapping method: A
** Units are inherited from the input mesh; no unit conversion is applied.
*Heading
MITK-GEM material-mapped volume mesh
*Preprint, echo=NO, model=NO, history=NO, contact=NO
*Material, name=GEM_MAT_1
*Elastic
1.000000000000000e+02, 3.000000000000000e-01
*Material, name=GEM_MAT_2
*Elastic
3.000000000000000e+02, 3.000000000000000e-01
*Part, name=MITK_GEM_PART
*Node
1, 0.000000000000000e+00, 0.000000000000000e+00, 0.000000000000000e+00
2, 1.000000000000000e+00, 0.000000000000000e+00, 0.000000000000000e+00
3, 0.000000000000000e+00, 1.000000000000000e+00, 0.000000000000000e+00
4, 0.000000000000000e+00, 0.000000000000000e+00, 1.000000000000000e+00
5, 2.000000000000000e+00, 0.000000000000000e+00, 0.000000000000000e+00
6, 3.000000000000000e+00, 0.000000000000000e+00, 0.000000000000000e+00
7, 2.000000000000000e+00, 1.000000000000000e+00, 0.000000000000000e+00
8, 2.000000000000000e+00, 0.000000000000000e+00, 1.000000000000000e+00
9, 4.000000000000000e+00, 0.000000000000000e+00, 0.000000000000000e+00
10, 5.000000000000000e+00, 0.000000000000000e+00, 0.000000000000000e+00
11, 4.000000000000000e+00, 1.000000000000000e+00, 0.000000000000000e+00
12, 4.000000000000000e+00, 0.000000000000000e+00, 1.000000000000000e+00
*Element, type=C3D4
1, 1, 2, 3, 4
2, 5, 6, 7, 8
3, 9, 10, 11, 12
*Elset, elset=GEM_MAT_1
1
*Solid Section, elset=GEM_MAT_1, material=GEM_MAT_1
,
*Elset, elset=GEM_MAT_2
2, 3
*Solid Section, elset=GEM_MAT_2, material=GEM_MAT_2
,
*End Part
*Assembly, name=ASSEMBLY
*Instance, name=MITK_GEM_INSTANCE, part=MITK_GEM_PART
*End Instance
*End Assembly
