/PREP7
! MITK-GEM material-mapped volume mesh
! Material mapping method: A
! Units are inherited from the input mesh; no unit conversion is applied.
ET,1,SOLID285
KEYOPT,1,1,1
MP,EX,1,1.000000000000000e+02
MP,PRXY,1,3.000000000000000e-01
MP,EX,2,3.000000000000000e+02
MP,PRXY,2,3.000000000000000e-01
N,1,0.000000000000000e+00,0.000000000000000e+00,0.000000000000000e+00
N,2,1.000000000000000e+00,0.000000000000000e+00,0.000000000000000e+00
N,3,0.000000000000000e+00,1.000000000000000e+00,0.000000000000000e+00
N,4,0.000000000000000e+00,0.000000000000000e+00,1.000000000000000e+00
N,5,2.000000000000000e+00,0.000000000000000e+00,0.000000000000000e+00
N,6,3.000000000000000e+00,0.000000000000000e+00,0.000000000000000e+00
N,7,2.000000000000000e+00,1.000000000000000e+00,0.000000000000000e+00
N,8,2.000000000000000e+00,0.000000000000000e+00,1.000000000000000e+00
N,9,4.000000000000000e+00,0.000000000000000e+00,0.000000000000000e+00
N,10,5.000000000000000e+00,0.000000000000000e+00,0.000000000000000e+00
N,11,4.000000000000000e+00,1.000000000000000e+00,0.000000000000000e+00
N,12,4.000000000000000e+00,0.000000000000000e+00,1.000000000000000e+00
TYPE,1
MAT,1
EN,1,1,2,3,4
MAT,2
EN,2,5,6,7,8
MAT,2
EN,3,9,10,11,12
ALLSEL,ALL
CM,GEM_ELEMENTS,ELEM
FINISH
